# Packages
 &PACKAGES
 useEXF=.TRUE.,
 useCAL=.TRUE.,
 useDIAGNOSTICS=.TRUE.,
 useMNC=.TRUE.,
 useOBCS=.FALSE.,
 useKPP=.TRUE.,
 &
