# KPP parameters
 &KPP_PARM01
 KPP_ghatUseTotalDiffus=.TRUE.,
 &
